<routes>
	<vType id="Krauss" sigma="1" type="passenger" />
	<vType carFollowModel="CACC" color="255,20,20" id="CACC" type="passenger" />
	<flow begin="0" departLane="best" end="1800" from="-gneE6" id="HV001" probability="0.048" to="gneE4" type="Krauss" />
	<flow begin="0" departLane="best" end="1800" from="-gneE6" id="AV001" probability="0.072" to="gneE4" type="CACC" />
	<flow begin="0" departLane="best" end="1800" from="-gneE4" id="HV002" probability="0.048" to="gneE6" type="Krauss" />
	<flow begin="0" departLane="best" end="1800" from="-gneE4" id="AV002" probability="0.072" to="gneE6" type="CACC" />
	<flow begin="0" departLane="best" end="1800" from="-gneE6" id="HV003" probability="0.0048000000000000004" to="gneE5" type="Krauss" />
	<flow begin="0" departLane="best" end="1800" from="-gneE6" id="AV003" probability="0.0072" to="gneE5" type="CACC" />
	<flow begin="0" departLane="best" end="1800" from="-gneE4" id="HV004" probability="0.0048000000000000004" to="gneE7" type="Krauss" />
	<flow begin="0" departLane="best" end="1800" from="-gneE4" id="AV004" probability="0.0072" to="gneE7" type="CACC" />
	<flow begin="0" departLane="best" end="1800" from="-gneE5" id="HV005" probability="0.0288" to="gneE7" type="Krauss" />
	<flow begin="0" departLane="best" end="1800" from="-gneE5" id="AV005" probability="0.043199999999999995" to="gneE7" type="CACC" />
	<flow begin="0" departLane="best" end="1800" from="-gneE7" id="HV006" probability="0.0288" to="gneE5" type="Krauss" />
	<flow begin="0" departLane="best" end="1800" from="-gneE7" id="AV006" probability="0.043199999999999995" to="gneE5" type="CACC" />
	<flow begin="0" departLane="best" end="1800" from="-gneE5" id="HV007" probability="0.00576" to="gneE4" type="Krauss" />
	<flow begin="0" departLane="best" end="1800" from="-gneE5" id="AV007" probability="0.00864" to="gneE4" type="CACC" />
	<flow begin="0" departLane="best" end="1800" from="-gneE7" id="HV008" probability="0.00576" to="gneE6" type="Krauss" />
	<flow begin="0" departLane="best" end="1800" from="-gneE7" id="AV008" probability="0.00864" to="gneE6" type="CACC" />
	<flow begin="1801" departLane="best" end="3600" from="-gneE6" id="HV009" probability="0.048" to="gneE4" type="Krauss" />
	<flow begin="1801" departLane="best" end="3600" from="-gneE6" id="AV009" probability="0.072" to="gneE4" type="CACC" />
	<flow begin="1801" departLane="best" end="3600" from="-gneE4" id="HV010" probability="0.048" to="gneE6" type="Krauss" />
	<flow begin="1801" departLane="best" end="3600" from="-gneE4" id="AV010" probability="0.072" to="gneE6" type="CACC" />
	<flow begin="1801" departLane="best" end="3600" from="-gneE6" id="HV011" probability="0.009600000000000001" to="gneE5" type="Krauss" />
	<flow begin="1801" departLane="best" end="3600" from="-gneE6" id="AV011" probability="0.0144" to="gneE5" type="CACC" />
	<flow begin="1801" departLane="best" end="3600" from="-gneE4" id="HV012" probability="0.009600000000000001" to="gneE7" type="Krauss" />
	<flow begin="1801" departLane="best" end="3600" from="-gneE4" id="AV012" probability="0.0144" to="gneE7" type="CACC" />
	<flow begin="1801" departLane="best" end="3600" from="-gneE5" id="HV013" probability="0.0288" to="gneE7" type="Krauss" />
	<flow begin="1801" departLane="best" end="3600" from="-gneE5" id="AV013" probability="0.043199999999999995" to="gneE7" type="CACC" />
	<flow begin="1801" departLane="best" end="3600" from="-gneE7" id="HV014" probability="0.0288" to="gneE5" type="Krauss" />
	<flow begin="1801" departLane="best" end="3600" from="-gneE7" id="AV014" probability="0.043199999999999995" to="gneE5" type="CACC" />
	<flow begin="1801" departLane="best" end="3600" from="-gneE5" id="HV015" probability="0.00288" to="gneE4" type="Krauss" />
	<flow begin="1801" departLane="best" end="3600" from="-gneE5" id="AV015" probability="0.00432" to="gneE4" type="CACC" />
	<flow begin="1801" departLane="best" end="3600" from="-gneE7" id="HV016" probability="0.00288" to="gneE6" type="Krauss" />
	<flow begin="1801" departLane="best" end="3600" from="-gneE7" id="AV016" probability="0.00432" to="gneE6" type="CACC" />
	<flow begin="3601" departLane="best" end="5400" from="-gneE6" id="HV017" probability="0.038400000000000004" to="gneE4" type="Krauss" />
	<flow begin="3601" departLane="best" end="5400" from="-gneE6" id="AV017" probability="0.0576" to="gneE4" type="CACC" />
	<flow begin="3601" departLane="best" end="5400" from="-gneE4" id="HV018" probability="0.038400000000000004" to="gneE6" type="Krauss" />
	<flow begin="3601" departLane="best" end="5400" from="-gneE4" id="AV018" probability="0.0576" to="gneE6" type="CACC" />
	<flow begin="3601" departLane="best" end="5400" from="-gneE6" id="HV019" probability="0.0038399999999999997" to="gneE5" type="Krauss" />
	<flow begin="3601" departLane="best" end="5400" from="-gneE6" id="AV019" probability="0.0057599999999999995" to="gneE5" type="CACC" />
	<flow begin="3601" departLane="best" end="5400" from="-gneE4" id="HV020" probability="0.0038399999999999997" to="gneE7" type="Krauss" />
	<flow begin="3601" departLane="best" end="5400" from="-gneE4" id="AV020" probability="0.0057599999999999995" to="gneE7" type="CACC" />
	<flow begin="3601" departLane="best" end="5400" from="-gneE5" id="HV021" probability="0.038400000000000004" to="gneE7" type="Krauss" />
	<flow begin="3601" departLane="best" end="5400" from="-gneE5" id="AV021" probability="0.0576" to="gneE7" type="CACC" />
	<flow begin="3601" departLane="best" end="5400" from="-gneE7" id="HV022" probability="0.038400000000000004" to="gneE5" type="Krauss" />
	<flow begin="3601" departLane="best" end="5400" from="-gneE7" id="AV022" probability="0.0576" to="gneE5" type="CACC" />
	<flow begin="3601" departLane="best" end="5400" from="-gneE5" id="HV023" probability="0.007679999999999999" to="gneE4" type="Krauss" />
	<flow begin="3601" departLane="best" end="5400" from="-gneE5" id="AV023" probability="0.011519999999999999" to="gneE4" type="CACC" />
	<flow begin="3601" departLane="best" end="5400" from="-gneE7" id="HV024" probability="0.007679999999999999" to="gneE6" type="Krauss" />
	<flow begin="3601" departLane="best" end="5400" from="-gneE7" id="AV024" probability="0.011519999999999999" to="gneE6" type="CACC" />
	<flow begin="5401" departLane="best" end="7200" from="-gneE6" id="HV025" probability="0.038400000000000004" to="gneE4" type="Krauss" />
	<flow begin="5401" departLane="best" end="7200" from="-gneE6" id="AV025" probability="0.0576" to="gneE4" type="CACC" />
	<flow begin="5401" departLane="best" end="7200" from="-gneE4" id="HV026" probability="0.038400000000000004" to="gneE6" type="Krauss" />
	<flow begin="5401" departLane="best" end="7200" from="-gneE4" id="AV026" probability="0.0576" to="gneE6" type="CACC" />
	<flow begin="5401" departLane="best" end="7200" from="-gneE6" id="HV027" probability="0.007679999999999999" to="gneE5" type="Krauss" />
	<flow begin="5401" departLane="best" end="7200" from="-gneE6" id="AV027" probability="0.011519999999999999" to="gneE5" type="CACC" />
	<flow begin="5401" departLane="best" end="7200" from="-gneE4" id="HV028" probability="0.007679999999999999" to="gneE7" type="Krauss" />
	<flow begin="5401" departLane="best" end="7200" from="-gneE4" id="AV028" probability="0.011519999999999999" to="gneE7" type="CACC" />
	<flow begin="5401" departLane="best" end="7200" from="-gneE5" id="HV029" probability="0.038400000000000004" to="gneE7" type="Krauss" />
	<flow begin="5401" departLane="best" end="7200" from="-gneE5" id="AV029" probability="0.0576" to="gneE7" type="CACC" />
	<flow begin="5401" departLane="best" end="7200" from="-gneE7" id="HV030" probability="0.038400000000000004" to="gneE5" type="Krauss" />
	<flow begin="5401" departLane="best" end="7200" from="-gneE7" id="AV030" probability="0.0576" to="gneE5" type="CACC" />
	<flow begin="5401" departLane="best" end="7200" from="-gneE5" id="HV031" probability="0.0038399999999999997" to="gneE4" type="Krauss" />
	<flow begin="5401" departLane="best" end="7200" from="-gneE5" id="AV031" probability="0.0057599999999999995" to="gneE4" type="CACC" />
	<flow begin="5401" departLane="best" end="7200" from="-gneE7" id="HV032" probability="0.0038399999999999997" to="gneE6" type="Krauss" />
	<flow begin="5401" departLane="best" end="7200" from="-gneE7" id="AV032" probability="0.0057599999999999995" to="gneE6" type="CACC" />
	<flow begin="7201" departLane="best" end="9000" from="-gneE6" id="HV033" probability="0.0288" to="gneE4" type="Krauss" />
	<flow begin="7201" departLane="best" end="9000" from="-gneE6" id="AV033" probability="0.043199999999999995" to="gneE4" type="CACC" />
	<flow begin="7201" departLane="best" end="9000" from="-gneE4" id="HV034" probability="0.0288" to="gneE6" type="Krauss" />
	<flow begin="7201" departLane="best" end="9000" from="-gneE4" id="AV034" probability="0.043199999999999995" to="gneE6" type="CACC" />
	<flow begin="7201" departLane="best" end="9000" from="-gneE6" id="HV035" probability="0.00288" to="gneE5" type="Krauss" />
	<flow begin="7201" departLane="best" end="9000" from="-gneE6" id="AV035" probability="0.00432" to="gneE5" type="CACC" />
	<flow begin="7201" departLane="best" end="9000" from="-gneE4" id="HV036" probability="0.00288" to="gneE7" type="Krauss" />
	<flow begin="7201" departLane="best" end="9000" from="-gneE4" id="AV036" probability="0.00432" to="gneE7" type="CACC" />
	<flow begin="7201" departLane="best" end="9000" from="-gneE5" id="HV037" probability="0.048" to="gneE7" type="Krauss" />
	<flow begin="7201" departLane="best" end="9000" from="-gneE5" id="AV037" probability="0.072" to="gneE7" type="CACC" />
	<flow begin="7201" departLane="best" end="9000" from="-gneE7" id="HV038" probability="0.048" to="gneE5" type="Krauss" />
	<flow begin="7201" departLane="best" end="9000" from="-gneE7" id="AV038" probability="0.072" to="gneE5" type="CACC" />
	<flow begin="7201" departLane="best" end="9000" from="-gneE5" id="HV039" probability="0.009600000000000001" to="gneE4" type="Krauss" />
	<flow begin="7201" departLane="best" end="9000" from="-gneE5" id="AV039" probability="0.0144" to="gneE4" type="CACC" />
	<flow begin="7201" departLane="best" end="9000" from="-gneE7" id="HV040" probability="0.009600000000000001" to="gneE6" type="Krauss" />
	<flow begin="7201" departLane="best" end="9000" from="-gneE7" id="AV040" probability="0.0144" to="gneE6" type="CACC" />
	<flow begin="9001" departLane="best" end="10800" from="-gneE6" id="HV041" probability="0.00288" to="gneE4" type="Krauss" />
	<flow begin="9001" departLane="best" end="10800" from="-gneE6" id="AV041" probability="0.00432" to="gneE4" type="CACC" />
	<flow begin="9001" departLane="best" end="10800" from="-gneE4" id="HV042" probability="0.00288" to="gneE6" type="Krauss" />
	<flow begin="9001" departLane="best" end="10800" from="-gneE4" id="AV042" probability="0.00432" to="gneE6" type="CACC" />
	<flow begin="9001" departLane="best" end="10800" from="-gneE6" id="HV043" probability="0.00576" to="gneE5" type="Krauss" />
	<flow begin="9001" departLane="best" end="10800" from="-gneE6" id="AV043" probability="0.00864" to="gneE5" type="CACC" />
	<flow begin="9001" departLane="best" end="10800" from="-gneE4" id="HV044" probability="0.00576" to="gneE7" type="Krauss" />
	<flow begin="9001" departLane="best" end="10800" from="-gneE4" id="AV044" probability="0.00864" to="gneE7" type="CACC" />
	<flow begin="9001" departLane="best" end="10800" from="-gneE5" id="HV045" probability="0.048" to="gneE7" type="Krauss" />
	<flow begin="9001" departLane="best" end="10800" from="-gneE5" id="AV045" probability="0.072" to="gneE7" type="CACC" />
	<flow begin="9001" departLane="best" end="10800" from="-gneE7" id="HV046" probability="0.048" to="gneE5" type="Krauss" />
	<flow begin="9001" departLane="best" end="10800" from="-gneE7" id="AV046" probability="0.072" to="gneE5" type="CACC" />
	<flow begin="9001" departLane="best" end="10800" from="-gneE5" id="HV047" probability="0.0048000000000000004" to="gneE4" type="Krauss" />
	<flow begin="9001" departLane="best" end="10800" from="-gneE5" id="AV047" probability="0.0072" to="gneE4" type="CACC" />
	<flow begin="9001" departLane="best" end="10800" from="-gneE7" id="HV048" probability="0.0048000000000000004" to="gneE6" type="Krauss" />
	<flow begin="9001" departLane="best" end="10800" from="-gneE7" id="AV048" probability="0.0072" to="gneE6" type="CACC" />
</routes>