<routes>
	<vType id="Krauss" sigma="1" type="passenger" />
	<vType carFollowModel="CACC" color="255,20,20" id="CACC" type="passenger" />
	<flow begin="0" departLane="best" end="1800" from="-gneE6" id="HV001" probability="0.0144" to="gneE4" type="Krauss" />
	<flow begin="0" departLane="best" end="1800" from="-gneE6" id="AV001" probability="0.0576" to="gneE4" type="CACC" />
	<flow begin="0" departLane="best" end="1800" from="-gneE4" id="HV002" probability="0.0144" to="gneE6" type="Krauss" />
	<flow begin="0" departLane="best" end="1800" from="-gneE4" id="AV002" probability="0.0576" to="gneE6" type="CACC" />
	<flow begin="0" departLane="best" end="1800" from="-gneE6" id="HV003" probability="0.0048000000000000004" to="gneE5" type="Krauss" />
	<flow begin="0" departLane="best" end="1800" from="-gneE6" id="AV003" probability="0.019200000000000002" to="gneE5" type="CACC" />
	<flow begin="0" departLane="best" end="1800" from="-gneE4" id="HV004" probability="0.0048000000000000004" to="gneE7" type="Krauss" />
	<flow begin="0" departLane="best" end="1800" from="-gneE4" id="AV004" probability="0.019200000000000002" to="gneE7" type="CACC" />
	<flow begin="0" departLane="best" end="1800" from="-gneE5" id="HV005" probability="0.009600000000000001" to="gneE7" type="Krauss" />
	<flow begin="0" departLane="best" end="1800" from="-gneE5" id="AV005" probability="0.038400000000000004" to="gneE7" type="CACC" />
	<flow begin="0" departLane="best" end="1800" from="-gneE7" id="HV006" probability="0.009600000000000001" to="gneE5" type="Krauss" />
	<flow begin="0" departLane="best" end="1800" from="-gneE7" id="AV006" probability="0.038400000000000004" to="gneE5" type="CACC" />
	<flow begin="0" departLane="best" end="1800" from="-gneE5" id="HV007" probability="0.0024000000000000002" to="gneE4" type="Krauss" />
	<flow begin="0" departLane="best" end="1800" from="-gneE5" id="AV007" probability="0.009600000000000001" to="gneE4" type="CACC" />
	<flow begin="0" departLane="best" end="1800" from="-gneE7" id="HV008" probability="0.0024000000000000002" to="gneE6" type="Krauss" />
	<flow begin="0" departLane="best" end="1800" from="-gneE7" id="AV008" probability="0.009600000000000001" to="gneE6" type="CACC" />
	<flow begin="1801" departLane="best" end="3600" from="-gneE6" id="HV009" probability="0.019200000000000002" to="gneE4" type="Krauss" />
	<flow begin="1801" departLane="best" end="3600" from="-gneE6" id="AV009" probability="0.07680000000000001" to="gneE4" type="CACC" />
	<flow begin="1801" departLane="best" end="3600" from="-gneE4" id="HV010" probability="0.019200000000000002" to="gneE6" type="Krauss" />
	<flow begin="1801" departLane="best" end="3600" from="-gneE4" id="AV010" probability="0.07680000000000001" to="gneE6" type="CACC" />
	<flow begin="1801" departLane="best" end="3600" from="-gneE6" id="HV011" probability="0.0048000000000000004" to="gneE5" type="Krauss" />
	<flow begin="1801" departLane="best" end="3600" from="-gneE6" id="AV011" probability="0.019200000000000002" to="gneE5" type="CACC" />
	<flow begin="1801" departLane="best" end="3600" from="-gneE4" id="HV012" probability="0.0048000000000000004" to="gneE7" type="Krauss" />
	<flow begin="1801" departLane="best" end="3600" from="-gneE4" id="AV012" probability="0.019200000000000002" to="gneE7" type="CACC" />
	<flow begin="1801" departLane="best" end="3600" from="-gneE5" id="HV013" probability="0.009600000000000001" to="gneE7" type="Krauss" />
	<flow begin="1801" departLane="best" end="3600" from="-gneE5" id="AV013" probability="0.038400000000000004" to="gneE7" type="CACC" />
	<flow begin="1801" departLane="best" end="3600" from="-gneE7" id="HV014" probability="0.009600000000000001" to="gneE5" type="Krauss" />
	<flow begin="1801" departLane="best" end="3600" from="-gneE7" id="AV014" probability="0.038400000000000004" to="gneE5" type="CACC" />
	<flow begin="1801" departLane="best" end="3600" from="-gneE5" id="HV015" probability="0.0024000000000000002" to="gneE4" type="Krauss" />
	<flow begin="1801" departLane="best" end="3600" from="-gneE5" id="AV015" probability="0.009600000000000001" to="gneE4" type="CACC" />
	<flow begin="1801" departLane="best" end="3600" from="-gneE7" id="HV016" probability="0.0024000000000000002" to="gneE6" type="Krauss" />
	<flow begin="1801" departLane="best" end="3600" from="-gneE7" id="AV016" probability="0.009600000000000001" to="gneE6" type="CACC" />
	<flow begin="3601" departLane="best" end="5400" from="-gneE6" id="HV017" probability="0.019200000000000002" to="gneE4" type="Krauss" />
	<flow begin="3601" departLane="best" end="5400" from="-gneE6" id="AV017" probability="0.07680000000000001" to="gneE4" type="CACC" />
	<flow begin="3601" departLane="best" end="5400" from="-gneE4" id="HV018" probability="0.019200000000000002" to="gneE6" type="Krauss" />
	<flow begin="3601" departLane="best" end="5400" from="-gneE4" id="AV018" probability="0.07680000000000001" to="gneE6" type="CACC" />
	<flow begin="3601" departLane="best" end="5400" from="-gneE6" id="HV019" probability="0.0048000000000000004" to="gneE5" type="Krauss" />
	<flow begin="3601" departLane="best" end="5400" from="-gneE6" id="AV019" probability="0.019200000000000002" to="gneE5" type="CACC" />
	<flow begin="3601" departLane="best" end="5400" from="-gneE4" id="HV020" probability="0.0048000000000000004" to="gneE7" type="Krauss" />
	<flow begin="3601" departLane="best" end="5400" from="-gneE4" id="AV020" probability="0.019200000000000002" to="gneE7" type="CACC" />
	<flow begin="3601" departLane="best" end="5400" from="-gneE5" id="HV021" probability="0.012" to="gneE7" type="Krauss" />
	<flow begin="3601" departLane="best" end="5400" from="-gneE5" id="AV021" probability="0.048" to="gneE7" type="CACC" />
	<flow begin="3601" departLane="best" end="5400" from="-gneE7" id="HV022" probability="0.012" to="gneE5" type="Krauss" />
	<flow begin="3601" departLane="best" end="5400" from="-gneE7" id="AV022" probability="0.048" to="gneE5" type="CACC" />
	<flow begin="3601" departLane="best" end="5400" from="-gneE5" id="HV023" probability="0.0024000000000000002" to="gneE4" type="Krauss" />
	<flow begin="3601" departLane="best" end="5400" from="-gneE5" id="AV023" probability="0.009600000000000001" to="gneE4" type="CACC" />
	<flow begin="3601" departLane="best" end="5400" from="-gneE7" id="HV024" probability="0.0024000000000000002" to="gneE6" type="Krauss" />
	<flow begin="3601" departLane="best" end="5400" from="-gneE7" id="AV024" probability="0.009600000000000001" to="gneE6" type="CACC" />
	<flow begin="5401" departLane="best" end="7200" from="-gneE6" id="HV025" probability="0.0144" to="gneE4" type="Krauss" />
	<flow begin="5401" departLane="best" end="7200" from="-gneE6" id="AV025" probability="0.0576" to="gneE4" type="CACC" />
	<flow begin="5401" departLane="best" end="7200" from="-gneE4" id="HV026" probability="0.0144" to="gneE6" type="Krauss" />
	<flow begin="5401" departLane="best" end="7200" from="-gneE4" id="AV026" probability="0.0576" to="gneE6" type="CACC" />
	<flow begin="5401" departLane="best" end="7200" from="-gneE6" id="HV027" probability="0.0048000000000000004" to="gneE5" type="Krauss" />
	<flow begin="5401" departLane="best" end="7200" from="-gneE6" id="AV027" probability="0.019200000000000002" to="gneE5" type="CACC" />
	<flow begin="5401" departLane="best" end="7200" from="-gneE4" id="HV028" probability="0.0048000000000000004" to="gneE7" type="Krauss" />
	<flow begin="5401" departLane="best" end="7200" from="-gneE4" id="AV028" probability="0.019200000000000002" to="gneE7" type="CACC" />
	<flow begin="5401" departLane="best" end="7200" from="-gneE5" id="HV029" probability="0.012" to="gneE7" type="Krauss" />
	<flow begin="5401" departLane="best" end="7200" from="-gneE5" id="AV029" probability="0.048" to="gneE7" type="CACC" />
	<flow begin="5401" departLane="best" end="7200" from="-gneE7" id="HV030" probability="0.012" to="gneE5" type="Krauss" />
	<flow begin="5401" departLane="best" end="7200" from="-gneE7" id="AV030" probability="0.048" to="gneE5" type="CACC" />
	<flow begin="5401" departLane="best" end="7200" from="-gneE5" id="HV031" probability="0.0024000000000000002" to="gneE4" type="Krauss" />
	<flow begin="5401" departLane="best" end="7200" from="-gneE5" id="AV031" probability="0.009600000000000001" to="gneE4" type="CACC" />
	<flow begin="5401" departLane="best" end="7200" from="-gneE7" id="HV032" probability="0.0024000000000000002" to="gneE6" type="Krauss" />
	<flow begin="5401" departLane="best" end="7200" from="-gneE7" id="AV032" probability="0.009600000000000001" to="gneE6" type="CACC" />
	<flow begin="7201" departLane="best" end="9000" from="-gneE6" id="HV033" probability="0.024" to="gneE4" type="Krauss" />
	<flow begin="7201" departLane="best" end="9000" from="-gneE6" id="AV033" probability="0.096" to="gneE4" type="CACC" />
	<flow begin="7201" departLane="best" end="9000" from="-gneE4" id="HV034" probability="0.024" to="gneE6" type="Krauss" />
	<flow begin="7201" departLane="best" end="9000" from="-gneE4" id="AV034" probability="0.096" to="gneE6" type="CACC" />
	<flow begin="7201" departLane="best" end="9000" from="-gneE6" id="HV035" probability="0.0024000000000000002" to="gneE5" type="Krauss" />
	<flow begin="7201" departLane="best" end="9000" from="-gneE6" id="AV035" probability="0.009600000000000001" to="gneE5" type="CACC" />
	<flow begin="7201" departLane="best" end="9000" from="-gneE4" id="HV036" probability="0.0024000000000000002" to="gneE7" type="Krauss" />
	<flow begin="7201" departLane="best" end="9000" from="-gneE4" id="AV036" probability="0.009600000000000001" to="gneE7" type="CACC" />
	<flow begin="7201" departLane="best" end="9000" from="-gneE5" id="HV037" probability="0.0072" to="gneE7" type="Krauss" />
	<flow begin="7201" departLane="best" end="9000" from="-gneE5" id="AV037" probability="0.0288" to="gneE7" type="CACC" />
	<flow begin="7201" departLane="best" end="9000" from="-gneE7" id="HV038" probability="0.0072" to="gneE5" type="Krauss" />
	<flow begin="7201" departLane="best" end="9000" from="-gneE7" id="AV038" probability="0.0288" to="gneE5" type="CACC" />
	<flow begin="7201" departLane="best" end="9000" from="-gneE5" id="HV039" probability="0.0048000000000000004" to="gneE4" type="Krauss" />
	<flow begin="7201" departLane="best" end="9000" from="-gneE5" id="AV039" probability="0.019200000000000002" to="gneE4" type="CACC" />
	<flow begin="7201" departLane="best" end="9000" from="-gneE7" id="HV040" probability="0.0048000000000000004" to="gneE6" type="Krauss" />
	<flow begin="7201" departLane="best" end="9000" from="-gneE7" id="AV040" probability="0.019200000000000002" to="gneE6" type="CACC" />
	<flow begin="9001" departLane="best" end="10800" from="-gneE6" id="HV041" probability="0.019200000000000002" to="gneE4" type="Krauss" />
	<flow begin="9001" departLane="best" end="10800" from="-gneE6" id="AV041" probability="0.07680000000000001" to="gneE4" type="CACC" />
	<flow begin="9001" departLane="best" end="10800" from="-gneE4" id="HV042" probability="0.019200000000000002" to="gneE6" type="Krauss" />
	<flow begin="9001" departLane="best" end="10800" from="-gneE4" id="AV042" probability="0.07680000000000001" to="gneE6" type="CACC" />
	<flow begin="9001" departLane="best" end="10800" from="-gneE6" id="HV043" probability="0.0024000000000000002" to="gneE5" type="Krauss" />
	<flow begin="9001" departLane="best" end="10800" from="-gneE6" id="AV043" probability="0.009600000000000001" to="gneE5" type="CACC" />
	<flow begin="9001" departLane="best" end="10800" from="-gneE4" id="HV044" probability="0.0024000000000000002" to="gneE7" type="Krauss" />
	<flow begin="9001" departLane="best" end="10800" from="-gneE4" id="AV044" probability="0.009600000000000001" to="gneE7" type="CACC" />
	<flow begin="9001" departLane="best" end="10800" from="-gneE5" id="HV045" probability="0.012" to="gneE7" type="Krauss" />
	<flow begin="9001" departLane="best" end="10800" from="-gneE5" id="AV045" probability="0.048" to="gneE7" type="CACC" />
	<flow begin="9001" departLane="best" end="10800" from="-gneE7" id="HV046" probability="0.012" to="gneE5" type="Krauss" />
	<flow begin="9001" departLane="best" end="10800" from="-gneE7" id="AV046" probability="0.048" to="gneE5" type="CACC" />
	<flow begin="9001" departLane="best" end="10800" from="-gneE5" id="HV047" probability="0.0048000000000000004" to="gneE4" type="Krauss" />
	<flow begin="9001" departLane="best" end="10800" from="-gneE5" id="AV047" probability="0.019200000000000002" to="gneE4" type="CACC" />
	<flow begin="9001" departLane="best" end="10800" from="-gneE7" id="HV048" probability="0.0048000000000000004" to="gneE6" type="Krauss" />
	<flow begin="9001" departLane="best" end="10800" from="-gneE7" id="AV048" probability="0.019200000000000002" to="gneE6" type="CACC" />
	<flow begin="10801" departLane="best" end="12600" from="-gneE6" id="HV049" probability="0.024" to="gneE4" type="Krauss" />
	<flow begin="10801" departLane="best" end="12600" from="-gneE6" id="AV049" probability="0.096" to="gneE4" type="CACC" />
	<flow begin="10801" departLane="best" end="12600" from="-gneE4" id="HV050" probability="0.024" to="gneE6" type="Krauss" />
	<flow begin="10801" departLane="best" end="12600" from="-gneE4" id="AV050" probability="0.096" to="gneE6" type="CACC" />
	<flow begin="10801" departLane="best" end="12600" from="-gneE6" id="HV051" probability="0.0024000000000000002" to="gneE5" type="Krauss" />
	<flow begin="10801" departLane="best" end="12600" from="-gneE6" id="AV051" probability="0.009600000000000001" to="gneE5" type="CACC" />
	<flow begin="10801" departLane="best" end="12600" from="-gneE4" id="HV052" probability="0.0024000000000000002" to="gneE7" type="Krauss" />
	<flow begin="10801" departLane="best" end="12600" from="-gneE4" id="AV052" probability="0.009600000000000001" to="gneE7" type="CACC" />
	<flow begin="10801" departLane="best" end="12600" from="-gneE5" id="HV053" probability="0.009600000000000001" to="gneE7" type="Krauss" />
	<flow begin="10801" departLane="best" end="12600" from="-gneE5" id="AV053" probability="0.038400000000000004" to="gneE7" type="CACC" />
	<flow begin="10801" departLane="best" end="12600" from="-gneE7" id="HV054" probability="0.009600000000000001" to="gneE5" type="Krauss" />
	<flow begin="10801" departLane="best" end="12600" from="-gneE7" id="AV054" probability="0.038400000000000004" to="gneE5" type="CACC" />
	<flow begin="10801" departLane="best" end="12600" from="-gneE5" id="HV055" probability="0.0048000000000000004" to="gneE4" type="Krauss" />
	<flow begin="10801" departLane="best" end="12600" from="-gneE5" id="AV055" probability="0.019200000000000002" to="gneE4" type="CACC" />
	<flow begin="10801" departLane="best" end="12600" from="-gneE7" id="HV056" probability="0.0048000000000000004" to="gneE6" type="Krauss" />
	<flow begin="10801" departLane="best" end="12600" from="-gneE7" id="AV056" probability="0.019200000000000002" to="gneE6" type="CACC" />
	<flow begin="12601" departLane="best" end="14400" from="-gneE6" id="HV057" probability="0.019200000000000002" to="gneE4" type="Krauss" />
	<flow begin="12601" departLane="best" end="14400" from="-gneE6" id="AV057" probability="0.07680000000000001" to="gneE4" type="CACC" />
	<flow begin="12601" departLane="best" end="14400" from="-gneE4" id="HV058" probability="0.019200000000000002" to="gneE6" type="Krauss" />
	<flow begin="12601" departLane="best" end="14400" from="-gneE4" id="AV058" probability="0.07680000000000001" to="gneE6" type="CACC" />
	<flow begin="12601" departLane="best" end="14400" from="-gneE6" id="HV059" probability="0.0024000000000000002" to="gneE5" type="Krauss" />
	<flow begin="12601" departLane="best" end="14400" from="-gneE6" id="AV059" probability="0.009600000000000001" to="gneE5" type="CACC" />
	<flow begin="12601" departLane="best" end="14400" from="-gneE4" id="HV060" probability="0.0024000000000000002" to="gneE7" type="Krauss" />
	<flow begin="12601" departLane="best" end="14400" from="-gneE4" id="AV060" probability="0.009600000000000001" to="gneE7" type="CACC" />
	<flow begin="12601" departLane="best" end="14400" from="-gneE5" id="HV061" probability="0.0072" to="gneE7" type="Krauss" />
	<flow begin="12601" departLane="best" end="14400" from="-gneE5" id="AV061" probability="0.0288" to="gneE7" type="CACC" />
	<flow begin="12601" departLane="best" end="14400" from="-gneE7" id="HV062" probability="0.0072" to="gneE5" type="Krauss" />
	<flow begin="12601" departLane="best" end="14400" from="-gneE7" id="AV062" probability="0.0288" to="gneE5" type="CACC" />
	<flow begin="12601" departLane="best" end="14400" from="-gneE5" id="HV063" probability="0.0048000000000000004" to="gneE4" type="Krauss" />
	<flow begin="12601" departLane="best" end="14400" from="-gneE5" id="AV063" probability="0.019200000000000002" to="gneE4" type="CACC" />
	<flow begin="12601" departLane="best" end="14400" from="-gneE7" id="HV064" probability="0.0048000000000000004" to="gneE6" type="Krauss" />
	<flow begin="12601" departLane="best" end="14400" from="-gneE7" id="AV064" probability="0.019200000000000002" to="gneE6" type="CACC" />
	<flow begin="14401" departLane="best" end="16200" from="-gneE6" id="HV065" probability="0.0144" to="gneE4" type="Krauss" />
	<flow begin="14401" departLane="best" end="16200" from="-gneE6" id="AV065" probability="0.0576" to="gneE4" type="CACC" />
	<flow begin="14401" departLane="best" end="16200" from="-gneE4" id="HV066" probability="0.0144" to="gneE6" type="Krauss" />
	<flow begin="14401" departLane="best" end="16200" from="-gneE4" id="AV066" probability="0.0576" to="gneE6" type="CACC" />
	<flow begin="14401" departLane="best" end="16200" from="-gneE6" id="HV067" probability="0.0024000000000000002" to="gneE5" type="Krauss" />
	<flow begin="14401" departLane="best" end="16200" from="-gneE6" id="AV067" probability="0.009600000000000001" to="gneE5" type="CACC" />
	<flow begin="14401" departLane="best" end="16200" from="-gneE4" id="HV068" probability="0.0024000000000000002" to="gneE7" type="Krauss" />
	<flow begin="14401" departLane="best" end="16200" from="-gneE4" id="AV068" probability="0.009600000000000001" to="gneE7" type="CACC" />
	<flow begin="14401" departLane="best" end="16200" from="-gneE5" id="HV069" probability="0.009600000000000001" to="gneE7" type="Krauss" />
	<flow begin="14401" departLane="best" end="16200" from="-gneE5" id="AV069" probability="0.038400000000000004" to="gneE7" type="CACC" />
	<flow begin="14401" departLane="best" end="16200" from="-gneE7" id="HV070" probability="0.009600000000000001" to="gneE5" type="Krauss" />
	<flow begin="14401" departLane="best" end="16200" from="-gneE7" id="AV070" probability="0.038400000000000004" to="gneE5" type="CACC" />
	<flow begin="14401" departLane="best" end="16200" from="-gneE5" id="HV071" probability="0.0048000000000000004" to="gneE4" type="Krauss" />
	<flow begin="14401" departLane="best" end="16200" from="-gneE5" id="AV071" probability="0.019200000000000002" to="gneE4" type="CACC" />
	<flow begin="14401" departLane="best" end="16200" from="-gneE7" id="HV072" probability="0.0048000000000000004" to="gneE6" type="Krauss" />
	<flow begin="14401" departLane="best" end="16200" from="-gneE7" id="AV072" probability="0.019200000000000002" to="gneE6" type="CACC" />
	<flow begin="16201" departLane="best" end="18000" from="-gneE6" id="HV073" probability="0.024" to="gneE4" type="Krauss" />
	<flow begin="16201" departLane="best" end="18000" from="-gneE6" id="AV073" probability="0.096" to="gneE4" type="CACC" />
	<flow begin="16201" departLane="best" end="18000" from="-gneE4" id="HV074" probability="0.024" to="gneE6" type="Krauss" />
	<flow begin="16201" departLane="best" end="18000" from="-gneE4" id="AV074" probability="0.096" to="gneE6" type="CACC" />
	<flow begin="16201" departLane="best" end="18000" from="-gneE6" id="HV075" probability="0.0048000000000000004" to="gneE5" type="Krauss" />
	<flow begin="16201" departLane="best" end="18000" from="-gneE6" id="AV075" probability="0.019200000000000002" to="gneE5" type="CACC" />
	<flow begin="16201" departLane="best" end="18000" from="-gneE4" id="HV076" probability="0.0048000000000000004" to="gneE7" type="Krauss" />
	<flow begin="16201" departLane="best" end="18000" from="-gneE4" id="AV076" probability="0.019200000000000002" to="gneE7" type="CACC" />
	<flow begin="16201" departLane="best" end="18000" from="-gneE5" id="HV077" probability="0.0072" to="gneE7" type="Krauss" />
	<flow begin="16201" departLane="best" end="18000" from="-gneE5" id="AV077" probability="0.0288" to="gneE7" type="CACC" />
	<flow begin="16201" departLane="best" end="18000" from="-gneE7" id="HV078" probability="0.0072" to="gneE5" type="Krauss" />
	<flow begin="16201" departLane="best" end="18000" from="-gneE7" id="AV078" probability="0.0288" to="gneE5" type="CACC" />
	<flow begin="16201" departLane="best" end="18000" from="-gneE5" id="HV079" probability="0.0024000000000000002" to="gneE4" type="Krauss" />
	<flow begin="16201" departLane="best" end="18000" from="-gneE5" id="AV079" probability="0.009600000000000001" to="gneE4" type="CACC" />
	<flow begin="16201" departLane="best" end="18000" from="-gneE7" id="HV080" probability="0.0024000000000000002" to="gneE6" type="Krauss" />
	<flow begin="16201" departLane="best" end="18000" from="-gneE7" id="AV080" probability="0.009600000000000001" to="gneE6" type="CACC" />
	<flow begin="18001" departLane="best" end="19800" from="-gneE6" id="HV081" probability="0.019200000000000002" to="gneE4" type="Krauss" />
	<flow begin="18001" departLane="best" end="19800" from="-gneE6" id="AV081" probability="0.07680000000000001" to="gneE4" type="CACC" />
	<flow begin="18001" departLane="best" end="19800" from="-gneE4" id="HV082" probability="0.019200000000000002" to="gneE6" type="Krauss" />
	<flow begin="18001" departLane="best" end="19800" from="-gneE4" id="AV082" probability="0.07680000000000001" to="gneE6" type="CACC" />
	<flow begin="18001" departLane="best" end="19800" from="-gneE6" id="HV083" probability="0.0024000000000000002" to="gneE5" type="Krauss" />
	<flow begin="18001" departLane="best" end="19800" from="-gneE6" id="AV083" probability="0.009600000000000001" to="gneE5" type="CACC" />
	<flow begin="18001" departLane="best" end="19800" from="-gneE4" id="HV084" probability="0.0024000000000000002" to="gneE7" type="Krauss" />
	<flow begin="18001" departLane="best" end="19800" from="-gneE4" id="AV084" probability="0.009600000000000001" to="gneE7" type="CACC" />
	<flow begin="18001" departLane="best" end="19800" from="-gneE5" id="HV085" probability="0.009600000000000001" to="gneE7" type="Krauss" />
	<flow begin="18001" departLane="best" end="19800" from="-gneE5" id="AV085" probability="0.038400000000000004" to="gneE7" type="CACC" />
	<flow begin="18001" departLane="best" end="19800" from="-gneE7" id="HV086" probability="0.009600000000000001" to="gneE5" type="Krauss" />
	<flow begin="18001" departLane="best" end="19800" from="-gneE7" id="AV086" probability="0.038400000000000004" to="gneE5" type="CACC" />
	<flow begin="18001" departLane="best" end="19800" from="-gneE5" id="HV087" probability="0.0048000000000000004" to="gneE4" type="Krauss" />
	<flow begin="18001" departLane="best" end="19800" from="-gneE5" id="AV087" probability="0.019200000000000002" to="gneE4" type="CACC" />
	<flow begin="18001" departLane="best" end="19800" from="-gneE7" id="HV088" probability="0.0048000000000000004" to="gneE6" type="Krauss" />
	<flow begin="18001" departLane="best" end="19800" from="-gneE7" id="AV088" probability="0.019200000000000002" to="gneE6" type="CACC" />
	<flow begin="19801" departLane="best" end="21600" from="-gneE6" id="HV089" probability="0.024" to="gneE4" type="Krauss" />
	<flow begin="19801" departLane="best" end="21600" from="-gneE6" id="AV089" probability="0.096" to="gneE4" type="CACC" />
	<flow begin="19801" departLane="best" end="21600" from="-gneE4" id="HV090" probability="0.024" to="gneE6" type="Krauss" />
	<flow begin="19801" departLane="best" end="21600" from="-gneE4" id="AV090" probability="0.096" to="gneE6" type="CACC" />
	<flow begin="19801" departLane="best" end="21600" from="-gneE6" id="HV091" probability="0.0048000000000000004" to="gneE5" type="Krauss" />
	<flow begin="19801" departLane="best" end="21600" from="-gneE6" id="AV091" probability="0.019200000000000002" to="gneE5" type="CACC" />
	<flow begin="19801" departLane="best" end="21600" from="-gneE4" id="HV092" probability="0.0048000000000000004" to="gneE7" type="Krauss" />
	<flow begin="19801" departLane="best" end="21600" from="-gneE4" id="AV092" probability="0.019200000000000002" to="gneE7" type="CACC" />
	<flow begin="19801" departLane="best" end="21600" from="-gneE5" id="HV093" probability="0.009600000000000001" to="gneE7" type="Krauss" />
	<flow begin="19801" departLane="best" end="21600" from="-gneE5" id="AV093" probability="0.038400000000000004" to="gneE7" type="CACC" />
	<flow begin="19801" departLane="best" end="21600" from="-gneE7" id="HV094" probability="0.009600000000000001" to="gneE5" type="Krauss" />
	<flow begin="19801" departLane="best" end="21600" from="-gneE7" id="AV094" probability="0.038400000000000004" to="gneE5" type="CACC" />
	<flow begin="19801" departLane="best" end="21600" from="-gneE5" id="HV095" probability="0.0024000000000000002" to="gneE4" type="Krauss" />
	<flow begin="19801" departLane="best" end="21600" from="-gneE5" id="AV095" probability="0.009600000000000001" to="gneE4" type="CACC" />
	<flow begin="19801" departLane="best" end="21600" from="-gneE7" id="HV096" probability="0.0024000000000000002" to="gneE6" type="Krauss" />
	<flow begin="19801" departLane="best" end="21600" from="-gneE7" id="AV096" probability="0.009600000000000001" to="gneE6" type="CACC" />
	<flow begin="21601" departLane="best" end="23400" from="-gneE6" id="HV097" probability="0.0144" to="gneE4" type="Krauss" />
	<flow begin="21601" departLane="best" end="23400" from="-gneE6" id="AV097" probability="0.0576" to="gneE4" type="CACC" />
	<flow begin="21601" departLane="best" end="23400" from="-gneE4" id="HV098" probability="0.0144" to="gneE6" type="Krauss" />
	<flow begin="21601" departLane="best" end="23400" from="-gneE4" id="AV098" probability="0.0576" to="gneE6" type="CACC" />
	<flow begin="21601" departLane="best" end="23400" from="-gneE6" id="HV099" probability="0.0024000000000000002" to="gneE5" type="Krauss" />
	<flow begin="21601" departLane="best" end="23400" from="-gneE6" id="AV099" probability="0.009600000000000001" to="gneE5" type="CACC" />
	<flow begin="21601" departLane="best" end="23400" from="-gneE4" id="HV100" probability="0.0024000000000000002" to="gneE7" type="Krauss" />
	<flow begin="21601" departLane="best" end="23400" from="-gneE4" id="AV100" probability="0.009600000000000001" to="gneE7" type="CACC" />
	<flow begin="21601" departLane="best" end="23400" from="-gneE5" id="HV101" probability="0.012" to="gneE7" type="Krauss" />
	<flow begin="21601" departLane="best" end="23400" from="-gneE5" id="AV101" probability="0.048" to="gneE7" type="CACC" />
	<flow begin="21601" departLane="best" end="23400" from="-gneE7" id="HV102" probability="0.012" to="gneE5" type="Krauss" />
	<flow begin="21601" departLane="best" end="23400" from="-gneE7" id="AV102" probability="0.048" to="gneE5" type="CACC" />
	<flow begin="21601" departLane="best" end="23400" from="-gneE5" id="HV103" probability="0.0048000000000000004" to="gneE4" type="Krauss" />
	<flow begin="21601" departLane="best" end="23400" from="-gneE5" id="AV103" probability="0.019200000000000002" to="gneE4" type="CACC" />
	<flow begin="21601" departLane="best" end="23400" from="-gneE7" id="HV104" probability="0.0048000000000000004" to="gneE6" type="Krauss" />
	<flow begin="21601" departLane="best" end="23400" from="-gneE7" id="AV104" probability="0.019200000000000002" to="gneE6" type="CACC" />
	<flow begin="23401" departLane="best" end="25200" from="-gneE6" id="HV105" probability="0.0144" to="gneE4" type="Krauss" />
	<flow begin="23401" departLane="best" end="25200" from="-gneE6" id="AV105" probability="0.0576" to="gneE4" type="CACC" />
	<flow begin="23401" departLane="best" end="25200" from="-gneE4" id="HV106" probability="0.0144" to="gneE6" type="Krauss" />
	<flow begin="23401" departLane="best" end="25200" from="-gneE4" id="AV106" probability="0.0576" to="gneE6" type="CACC" />
	<flow begin="23401" departLane="best" end="25200" from="-gneE6" id="HV107" probability="0.0024000000000000002" to="gneE5" type="Krauss" />
	<flow begin="23401" departLane="best" end="25200" from="-gneE6" id="AV107" probability="0.009600000000000001" to="gneE5" type="CACC" />
	<flow begin="23401" departLane="best" end="25200" from="-gneE4" id="HV108" probability="0.0024000000000000002" to="gneE7" type="Krauss" />
	<flow begin="23401" departLane="best" end="25200" from="-gneE4" id="AV108" probability="0.009600000000000001" to="gneE7" type="CACC" />
	<flow begin="23401" departLane="best" end="25200" from="-gneE5" id="HV109" probability="0.0072" to="gneE7" type="Krauss" />
	<flow begin="23401" departLane="best" end="25200" from="-gneE5" id="AV109" probability="0.0288" to="gneE7" type="CACC" />
	<flow begin="23401" departLane="best" end="25200" from="-gneE7" id="HV110" probability="0.0072" to="gneE5" type="Krauss" />
	<flow begin="23401" departLane="best" end="25200" from="-gneE7" id="AV110" probability="0.0288" to="gneE5" type="CACC" />
	<flow begin="23401" departLane="best" end="25200" from="-gneE5" id="HV111" probability="0.0048000000000000004" to="gneE4" type="Krauss" />
	<flow begin="23401" departLane="best" end="25200" from="-gneE5" id="AV111" probability="0.019200000000000002" to="gneE4" type="CACC" />
	<flow begin="23401" departLane="best" end="25200" from="-gneE7" id="HV112" probability="0.0048000000000000004" to="gneE6" type="Krauss" />
	<flow begin="23401" departLane="best" end="25200" from="-gneE7" id="AV112" probability="0.019200000000000002" to="gneE6" type="CACC" />